@<TRIPOS>MOLECULE
lg1
   67    70     1     0     0
SMALL
bcc


@<TRIPOS>ATOM
      1 C1          10.6830   -40.3670    -5.6270 c3         1 lg1       0.106700
      2 O1           7.4200   -35.4650   -12.6170 os         1 lg1      -0.308900
      3 C2          16.4310   -40.0600    -3.7600 c3         1 lg1       0.161800
      4 N1           8.5490   -32.8100    -9.3190 n1         1 lg1      -0.353800
      5 Cl1          4.6420   -34.4180   -11.9310 cl         1 lg1      -0.061400
      6 Cl2          6.2000   -35.3890    -6.6850 cl         1 lg1      -0.092400
      7 C3           9.3840   -33.4810    -8.9310 cg         1 lg1       0.240800
      8 C4          11.8690   -33.8560    -8.3430 ca         1 lg1       0.454200
      9 C5           5.5090   -34.9400    -9.3440 ca         1 lg1      -0.057000
     10 C6           8.1730   -35.9190   -10.3200 ca         1 lg1      -0.248000
     11 C7          13.8600   -36.7470    -6.6700 ca         1 lg1      -0.250300
     12 C8          11.1210   -37.9580    -6.8020 ca         1 lg1      -0.186000
     13 C9          16.9240   -39.3370    -5.0010 c3         1 lg1      -0.123400
     14 C10         15.9140   -38.2500    -5.3880 c3         1 lg1       0.127400
     15 C11         21.0490   -40.5570    -0.3430 c3         1 lg1       0.151100
     16 C12         17.4560   -40.5070    -1.4150 c3         1 lg1       0.064300
     17 C13         18.7670   -39.5210    -3.1470 c3         1 lg1       0.064300
     18 C14         18.7270   -41.1750    -0.8600 c3         1 lg1       0.089300
     19 C15         19.9900   -40.1910    -2.6000 c3         1 lg1       0.089300
     20 N2          12.9430   -34.6580    -7.8520 nb         1 lg1      -0.667000
     21 N3           8.8470   -36.3470    -7.8950 nh         1 lg1      -0.643000
     22 O2          11.9810   -39.8870    -5.5250 os         1 lg1      -0.297900
     23 O3          14.6150   -38.7740    -5.3780 os         1 lg1      -0.303900
     24 C16          7.1390   -35.4450   -11.2830 ca         1 lg1       0.180100
     25 C17          5.8180   -34.9570   -10.7980 ca         1 lg1      -0.038600
     26 C18          6.5360   -35.4090    -8.3780 ca         1 lg1      -0.067600
     27 C19         10.4700   -34.3750    -8.4260 ca         1 lg1      -0.179300
     28 C20          7.8580   -35.8990    -8.8550 ca         1 lg1       0.209600
     29 C21         12.2390   -38.6700    -6.1040 ca         1 lg1       0.123100
     30 C22         13.5930   -38.0830    -6.0360 ca         1 lg1       0.145100
     31 C23         10.1960   -35.7920    -7.9680 ca         1 lg1       0.241600
     32 C24         12.7470   -36.0100    -7.4030 ca         1 lg1       0.435600
     33 C25         11.3700   -36.6270    -7.4550 ca         1 lg1      -0.172300
     34 N4          17.6010   -40.3220    -2.8600 n4         1 lg1      -0.983400
     35 N5          19.8710   -40.3650    -1.1810 n4         1 lg1      -0.981400
     36 C26          8.7290   -35.7670   -12.9630 c3         1 lg1       0.109700
     37 H1          10.6120   -41.3430    -5.1250 h1         1 lg1       0.050033
     38 H2           9.9910   -39.6580    -5.1490 h1         1 lg1       0.050033
     39 H3          10.4160   -40.4800    -6.6880 h1         1 lg1       0.050033
     40 H4          15.6930   -39.4350    -3.2360 hx         1 lg1       0.059700
     41 H5          15.9650   -41.0140    -4.0480 hx         1 lg1       0.059700
     42 H6          12.0730   -32.8450    -8.6640 h4         1 lg1       0.036100
     43 H7           4.5490   -34.5910    -8.9940 ha         1 lg1       0.165000
     44 H8           9.1320   -36.2700   -10.6710 ha         1 lg1       0.156000
     45 H9          14.8450   -36.3080    -6.6060 ha         1 lg1       0.165000
     46 H10         10.1360   -38.4010    -6.8360 ha         1 lg1       0.143000
     47 H11         17.0270   -40.0550    -5.8280 hc         1 lg1       0.059200
     48 H12         17.9000   -38.8750    -4.7940 hc         1 lg1       0.059200
     49 H13         16.1480   -37.8780    -6.3960 h1         1 lg1       0.046700
     50 H14         15.9770   -37.4210    -4.6680 h1         1 lg1       0.046700
     51 H15         20.7390   -40.6700     0.7060 hx         1 lg1       0.028700
     52 H16         21.5850   -41.4620    -0.6660 hx         1 lg1       0.028700
     53 H17         21.7120   -39.6840    -0.4370 hx         1 lg1       0.028700
     54 H18         17.3130   -39.5290    -0.9310 hx         1 lg1       0.052200
     55 H19         16.5850   -41.1470    -1.2120 hx         1 lg1       0.052200
     56 H20         18.8710   -39.4040    -4.2360 hx         1 lg1       0.052200
     57 H21         18.6540   -38.5310    -2.6810 hx         1 lg1       0.052200
     58 H22         18.6420   -41.2740     0.2320 hx         1 lg1       0.061450
     59 H23         18.8450   -42.1720    -1.3110 hx         1 lg1       0.061450
     60 H24         20.1090   -41.1750    -3.0770 hx         1 lg1       0.061450
     61 H25         20.8720   -39.5700    -2.8170 hx         1 lg1       0.061450
     62 H26          8.6110   -37.0230    -7.1970 hn         1 lg1       0.447800
     63 H27         17.8890   -41.2310    -3.1590 hn         1 lg1       0.360800
     64 H28         19.5650   -39.4580    -0.8900 hn         1 lg1       0.371800
     65 H29          8.8320   -35.7530   -14.0580 h1         1 lg1       0.051700
     66 H30          9.4060   -35.0210   -12.5210 h1         1 lg1       0.051700
     67 H31          8.9870   -36.7670   -12.5840 h1         1 lg1       0.051700
@<TRIPOS>BOND
     1     2    36 1   
     2     2    24 1   
     3     5    25 1   
     4    24    25 ar  
     5    10    24 ar  
     6     9    25 ar  
     7    10    28 ar  
     8     9    26 ar  
     9     4     7 3   
    10     7    27 1   
    11    26    28 ar  
    12    21    28 1   
    13     8    27 ar  
    14    27    31 ar  
    15     6    26 1   
    16     8    20 ar  
    17    21    31 1   
    18    31    33 ar  
    19    20    32 ar  
    20    32    33 ar  
    21    12    33 ar  
    22    11    32 ar  
    23    12    29 ar  
    24    11    30 ar  
    25    29    30 ar  
    26    22    29 1   
    27    23    30 1   
    28     1    22 1   
    29    14    23 1   
    30    13    14 1   
    31     3    13 1   
    32     3    34 1   
    33    17    34 1   
    34    17    19 1   
    35    16    34 1   
    36    19    35 1   
    37    16    18 1   
    38    18    35 1   
    39    15    35 1   
    40     1    37 1   
    41     1    38 1   
    42     1    39 1   
    43     3    40 1   
    44     3    41 1   
    45     8    42 1   
    46     9    43 1   
    47    10    44 1   
    48    11    45 1   
    49    12    46 1   
    50    13    47 1   
    51    13    48 1   
    52    14    49 1   
    53    14    50 1   
    54    15    51 1   
    55    15    52 1   
    56    15    53 1   
    57    16    54 1   
    58    16    55 1   
    59    17    56 1   
    60    17    57 1   
    61    18    58 1   
    62    18    59 1   
    63    19    60 1   
    64    19    61 1   
    65    21    62 1   
    66    34    63 1   
    67    35    64 1   
    68    36    65 1   
    69    36    66 1   
    70    36    67 1   
@<TRIPOS>SUBSTRUCTURE
     1 lg1         1 TEMP              0 ****  ****    0 ROOT
