@<TRIPOS>MOLECULE
lg2
   59    62     1     0     0
SMALL
bcc


@<TRIPOS>ATOM
      1 C1           4.5320   -35.6910   -10.4540 ca         1 lg2      -0.124000
      2 C2           4.8160   -35.7270    -9.0880 ca         1 lg2      -0.121000
      3 C3           5.5600   -35.4900   -11.3750 ca         1 lg2      -0.122000
      4 C4          14.6840   -37.5330    -5.6750 ca         1 lg2      -0.454600
      5 C5          11.7350   -33.3680    -8.7030 cc         1 lg2       0.437200
      6 C6           6.1280   -35.5620    -8.6450 ca         1 lg2      -0.090300
      7 C7           7.1560   -35.3600    -9.5660 ca         1 lg2       0.051600
      8 C8           6.8720   -35.3240   -10.9310 ca         1 lg2       0.033400
      9 C9          10.6660   -34.2390    -8.7090 cd         1 lg2      -0.364000
     10 C10         14.5950   -38.7970    -5.1300 ca         1 lg2       0.701200
     11 C11         13.5490   -37.0770    -6.3140 ca         1 lg2       0.701200
     12 C12         12.4480   -39.0100    -5.8460 ca         1 lg2       0.721300
     13 C13         12.6530   -35.0230    -7.5960 cd         1 lg2       0.627300
     14 C14          9.3650   -34.0930    -9.2700 c          1 lg2       0.721700
     15 C15         15.9770   -40.7410    -4.4560 c3         1 lg2       0.192800
     16 C16         16.2390   -38.5480    -3.3180 c3         1 lg2       0.192800
     17 C17         17.4520   -41.0250    -4.1580 c3         1 lg2       0.162800
     18 C18         17.7050   -38.9030    -3.0580 c3         1 lg2       0.162800
     19 C19          6.4000   -35.6060    -7.1760 c3         1 lg2      -0.056800
     20 C20         11.2070   -39.8300    -5.9410 c3         1 lg2      -0.138400
     21 C21         19.2740   -40.6770    -2.6220 c3         1 lg2       0.163800
     22 C22         19.5420   -40.4450    -1.1460 c3         1 lg2       0.130400
     23 N1          12.8750   -33.8150    -8.0650 nc         1 lg2      -0.709000
     24 N2          13.4890   -39.5660    -5.1970 nb         1 lg2      -0.775000
     25 N3          12.4090   -37.7920    -6.4190 nb         1 lg2      -0.800000
     26 N4          15.7250   -39.2970    -4.4730 nh         1 lg2      -0.738300
     27 N5          17.8800   -40.3540    -2.9240 n3         1 lg2      -0.733600
     28 N6           8.4850   -35.1890    -9.1010 n          1 lg2      -0.482100
     29 N7          13.5990   -35.7830    -6.8880 nh         1 lg2      -0.820600
     30 O1           9.0100   -33.0740    -9.9100 o          1 lg2      -0.568100
     31 O2          20.8880   -40.7940    -0.8500 oh         1 lg2      -0.603800
     32 S1          11.0950   -35.6820    -7.8870 ss         1 lg2       0.059700
     33 Cl1          8.1110   -35.0760   -12.1100 cl         1 lg2      -0.075400
     34 H1           3.5100   -35.8210   -10.7990 ha         1 lg2       0.138000
     35 H2           4.0080   -35.8840    -8.3790 ha         1 lg2       0.136000
     36 H3           5.3200   -35.4620   -12.4350 ha         1 lg2       0.149000
     37 H4          15.5860   -36.9360    -5.6060 ha         1 lg2       0.157000
     38 H5          11.7380   -32.3830    -9.1530 h4         1 lg2       0.064100
     39 H6          15.7210   -41.1810    -5.4270 h1         1 lg2       0.055450
     40 H7          15.3450   -41.2200    -3.6970 h1         1 lg2       0.055450
     41 H8          15.6360   -38.7780    -2.4290 h1         1 lg2       0.055450
     42 H9          16.1630   -37.4690    -3.5030 h1         1 lg2       0.055450
     43 H10         17.5730   -42.1100    -4.0520 h1         1 lg2       0.043450
     44 H11         18.0680   -40.7130    -5.0120 h1         1 lg2       0.043450
     45 H12         18.3310   -38.5020    -3.8670 h1         1 lg2       0.043450
     46 H13         18.0150   -38.4050    -2.1320 h1         1 lg2       0.043450
     47 H14          6.6170   -36.6340    -6.8620 hc         1 lg2       0.047367
     48 H15          7.2540   -34.9720    -6.9120 hc         1 lg2       0.047367
     49 H16          5.5390   -35.2390    -6.6030 hc         1 lg2       0.047367
     50 H17         10.5530   -39.6350    -5.0810 hc         1 lg2       0.065033
     51 H18         10.6490   -39.6050    -6.8590 hc         1 lg2       0.065033
     52 H19         11.4380   -40.9030    -5.9650 hc         1 lg2       0.065033
     53 H20         19.9150   -40.0460    -3.2460 h1         1 lg2       0.050200
     54 H21         19.4450   -41.7270    -2.8800 h1         1 lg2       0.050200
     55 H22         18.8870   -41.0810    -0.5420 h1         1 lg2       0.029200
     56 H23         19.3800   -39.3990    -0.8670 h1         1 lg2       0.029200
     57 H24          8.8610   -35.9690    -8.5680 hn         1 lg2       0.310500
     58 H25         14.4920   -35.3220    -6.7610 hn         1 lg2       0.467800
     59 H26         21.0170   -40.6320     0.0980 ho         1 lg2       0.404000
@<TRIPOS>BOND
     1     1     2 ar  
     2     1     3 ar  
     3     2     6 ar  
     4     3     8 ar  
     5     4    10 ar  
     6     4    11 ar  
     7     5     9 2   
     8     5    23 1   
     9     6     7 ar  
    10     6    19 1   
    11     7     8 ar  
    12     7    28 1   
    13     8    33 1   
    14     9    14 1   
    15     9    32 1   
    16    10    24 ar  
    17    10    26 1   
    18    11    25 ar  
    19    11    29 1   
    20    12    20 1   
    21    12    24 ar  
    22    12    25 ar  
    23    13    23 2   
    24    13    29 1   
    25    13    32 1   
    26    14    28 1   
    27    14    30 2   
    28    15    17 1   
    29    15    26 1   
    30    16    18 1   
    31    16    26 1   
    32    17    27 1   
    33    18    27 1   
    34    21    22 1   
    35    21    27 1   
    36    22    31 1   
    37     1    34 1   
    38     2    35 1   
    39     3    36 1   
    40     4    37 1   
    41     5    38 1   
    42    15    39 1   
    43    15    40 1   
    44    16    41 1   
    45    16    42 1   
    46    17    43 1   
    47    17    44 1   
    48    18    45 1   
    49    18    46 1   
    50    19    47 1   
    51    19    48 1   
    52    19    49 1   
    53    20    50 1   
    54    20    51 1   
    55    20    52 1   
    56    21    53 1   
    57    21    54 1   
    58    22    55 1   
    59    22    56 1   
    60    28    57 1   
    61    29    58 1   
    62    31    59 1   
@<TRIPOS>SUBSTRUCTURE
     1 lg2         1 TEMP              0 ****  ****    0 ROOT
