@<TRIPOS>MOLECULE
*****
   67    70     0     0     0
SMALL
NO_CHARGES

@<TRIPOS>ATOM
      1 C1         10.6830  -40.3670   -5.6270 C.3       1 <0>         0.0000
      2 O1          7.4200  -35.4650  -12.6170 O.3       1 <0>         0.0000
      3 C2         16.4310  -40.0600   -3.7600 C.3       1 <0>         0.0000
      4 N1          8.5490  -32.8100   -9.3190 N.1       1 <0>         0.0000
      5 Cl1         4.6420  -34.4180  -11.9310 Cl        1 <0>         0.0000
      6 Cl2         6.2000  -35.3890   -6.6850 Cl        1 <0>         0.0000
      7 C3          9.3840  -33.4810   -8.9310 C.1       1 <0>         0.0000
      8 C4         11.8690  -33.8560   -8.3430 C.ar      1 <0>         0.0000
      9 C5          5.5090  -34.9400   -9.3440 C.ar      1 <0>         0.0000
     10 C6          8.1730  -35.9190  -10.3200 C.ar      1 <0>         0.0000
     11 C7         13.8600  -36.7470   -6.6700 C.ar      1 <0>         0.0000
     12 C8         11.1210  -37.9580   -6.8020 C.ar      1 <0>         0.0000
     13 C9         16.9240  -39.3370   -5.0010 C.3       1 <0>         0.0000
     14 C10        15.9140  -38.2500   -5.3880 C.3       1 <0>         0.0000
     15 C11        21.0490  -40.5570   -0.3430 C.3       1 <0>         0.0000
     16 C12        17.4560  -40.5070   -1.4150 C.3       1 <0>         0.0000
     17 C13        18.7670  -39.5210   -3.1470 C.3       1 <0>         0.0000
     18 C14        18.7270  -41.1750   -0.8600 C.3       1 <0>         0.0000
     19 C15        19.9900  -40.1910   -2.6000 C.3       1 <0>         0.0000
     20 N2         12.9430  -34.6580   -7.8520 N.ar      1 <0>         0.0000
     21 N3          8.8470  -36.3470   -7.8950 N.pl3     1 <0>         0.0000
     22 O2         11.9810  -39.8870   -5.5250 O.3       1 <0>         0.0000
     23 O3         14.6150  -38.7740   -5.3780 O.3       1 <0>         0.0000
     24 C16         7.1390  -35.4450  -11.2830 C.ar      1 <0>         0.0000
     25 C17         5.8180  -34.9570  -10.7980 C.ar      1 <0>         0.0000
     26 C18         6.5360  -35.4090   -8.3780 C.ar      1 <0>         0.0000
     27 C19        10.4700  -34.3750   -8.4260 C.ar      1 <0>         0.0000
     28 C20         7.8580  -35.8990   -8.8550 C.ar      1 <0>         0.0000
     29 C21        12.2390  -38.6700   -6.1040 C.ar      1 <0>         0.0000
     30 C22        13.5930  -38.0830   -6.0360 C.ar      1 <0>         0.0000
     31 C23        10.1960  -35.7920   -7.9680 C.ar      1 <0>         0.0000
     32 C24        12.7470  -36.0100   -7.4030 C.ar      1 <0>         0.0000
     33 C25        11.3700  -36.6270   -7.4550 C.ar      1 <0>         0.0000
     34 N4         17.6010  -40.3220   -2.8600 N.4       1 <0>         0.0000
     35 N5         19.8710  -40.3650   -1.1810 N.4       1 <0>         0.0000
     36 C26         8.7290  -35.7670  -12.9630 C.3       1 <0>         0.0000
     37 H1         10.6120  -41.3432   -5.1250 H         1 <0>         0.0000
     38 H2          9.9913  -39.6578   -5.1489 H         1 <0>         0.0000
     39 H3         10.4164  -40.4803   -6.6882 H         1 <0>         0.0000
     40 H4         15.6934  -39.4346   -3.2357 H         1 <0>         0.0000
     41 H5         15.9646  -41.0137   -4.0479 H         1 <0>         0.0000
     42 H6         12.0733  -32.8452   -8.6637 H         1 <0>         0.0000
     43 H7          4.5489  -34.5907   -8.9938 H         1 <0>         0.0000
     44 H8          9.1318  -36.2705  -10.6715 H         1 <0>         0.0000
     45 H9         14.8446  -36.3080   -6.6056 H         1 <0>         0.0000
     46 H10        10.1365  -38.4007   -6.8361 H         1 <0>         0.0000
     47 H11        17.0266  -40.0548   -5.8282 H         1 <0>         0.0000
     48 H12        17.9003  -38.8746   -4.7936 H         1 <0>         0.0000
     49 H13        16.1484  -37.8780   -6.3963 H         1 <0>         0.0000
     50 H14        15.9775  -37.4213   -4.6675 H         1 <0>         0.0000
     51 H15        20.7387  -40.6698    0.7063 H         1 <0>         0.0000
     52 H16        21.5851  -41.4616   -0.6660 H         1 <0>         0.0000
     53 H17        21.7121  -39.6844   -0.4374 H         1 <0>         0.0000
     54 H18        17.3131  -39.5294   -0.9315 H         1 <0>         0.0000
     55 H19        16.5851  -41.1474   -1.2117 H         1 <0>         0.0000
     56 H20        18.8708  -39.4041   -4.2358 H         1 <0>         0.0000
     57 H21        18.6537  -38.5310   -2.6811 H         1 <0>         0.0000
     58 H22        18.6424  -41.2743    0.2322 H         1 <0>         0.0000
     59 H23        18.8447  -42.1715   -1.3108 H         1 <0>         0.0000
     60 H24        20.1087  -41.1749   -3.0774 H         1 <0>         0.0000
     61 H25        20.8715  -39.5696   -2.8166 H         1 <0>         0.0000
     62 H26         8.6105  -37.0226   -7.1966 H         1 <0>         0.0000
     63 H27        17.8894  -41.2315   -3.1594 H         1 <0>         0.0000
     64 H28        19.5650  -39.4584   -0.8904 H         1 <0>         0.0000
     65 H29         8.8320  -35.7528  -14.0581 H         1 <0>         0.0000
     66 H30         9.4062  -35.0211  -12.5214 H         1 <0>         0.0000
     67 H31         8.9871  -36.7667  -12.5836 H         1 <0>         0.0000
@<TRIPOS>BOND
     1    2   36 1
     2    2   24 1
     3    5   25 1
     4   24   25 ar
     5   10   24 ar
     6    9   25 ar
     7   10   28 ar
     8    9   26 ar
     9    4    7 3
    10    7   27 1
    11   26   28 ar
    12   21   28 1
    13    8   27 ar
    14   27   31 ar
    15    6   26 1
    16    8   20 ar
    17   21   31 1
    18   31   33 ar
    19   20   32 ar
    20   32   33 ar
    21   12   33 ar
    22   11   32 ar
    23   12   29 ar
    24   11   30 ar
    25   29   30 ar
    26   22   29 1
    27   23   30 1
    28    1   22 1
    29   14   23 1
    30   13   14 1
    31    3   13 1
    32    3   34 1
    33   17   34 1
    34   17   19 1
    35   16   34 1
    36   19   35 1
    37   16   18 1
    38   18   35 1
    39   15   35 1
    40    1   37 1
    41    1   38 1
    42    1   39 1
    43    3   40 1
    44    3   41 1
    45    8   42 1
    46    9   43 1
    47   10   44 1
    48   11   45 1
    49   12   46 1
    50   13   47 1
    51   13   48 1
    52   14   49 1
    53   14   50 1
    54   15   51 1
    55   15   52 1
    56   15   53 1
    57   16   54 1
    58   16   55 1
    59   17   56 1
    60   17   57 1
    61   18   58 1
    62   18   59 1
    63   19   60 1
    64   19   61 1
    65   21   62 1
    66   34   63 1
    67   35   64 1
    68   36   65 1
    69   36   66 1
    70   36   67 1
