@<TRIPOS>MOLECULE
dasatinib
   59    62     0     0     0
SMALL
USER_CHARGES

@<TRIPOS>ATOM
      1 C1          4.5321  -35.6912  -10.4535 C.ar      1 <0>        -0.1500
      2 C2          4.8164  -35.7273   -9.0884 C.ar      1 <0>        -0.1500
      3 C3          5.5597  -35.4896  -11.3749 C.ar      1 <0>        -0.1500
      4 C4         14.6840  -37.5326   -5.6750 C.ar      1 <0>        -0.1500
      5 C5         11.7348  -33.3677   -8.7031 C.2       1 <0>         0.0772
      6 C6          6.1284  -35.5618   -8.6447 C.ar      1 <0>        -0.1435
      7 C7          7.1561  -35.3601   -9.5661 C.ar      1 <0>         0.1170
      8 C8          6.8717  -35.3240  -10.9312 C.ar      1 <0>         0.1770
      9 C9         10.6660  -34.2393   -8.7091 C.2       1 <0>        -0.0450
     10 C10        14.5950  -38.7971   -5.1295 C.ar      1 <0>         0.4100
     11 C11        13.5490  -37.0769   -6.3141 C.ar      1 <0>         0.4100
     12 C12        12.4481  -39.0097   -5.8457 C.ar      1 <0>         0.4765
     13 C13        12.6531  -35.0231   -7.5957 C.2       1 <0>         0.4621
     14 C14         9.3651  -34.0926   -9.2698 C.2       1 <0>         0.7150
     15 C15        15.9775  -40.7406   -4.4558 C.3       1 <0>         0.3691
     16 C16        16.2390  -38.5483   -3.3183 C.3       1 <0>         0.3691
     17 C17        17.4519  -41.0248   -4.1581 C.3       1 <0>         0.2700
     18 C18        17.7049  -38.9028   -3.0585 C.3       1 <0>         0.2700
     19 C19         6.3998  -35.6065   -7.1756 C.3       1 <0>         0.1435
     20 C20        11.2066  -39.8299   -5.9405 C.3       1 <0>         0.1435
     21 C21        19.2741  -40.6770   -2.6223 C.3       1 <0>         0.2700
     22 C22        19.5419  -40.4453   -1.1464 C.3       1 <0>         0.2800
     23 N1         12.8750  -33.8153   -8.0648 N.2       1 <0>        -0.5653
     24 N2         13.4885  -39.5662   -5.1965 N.ar      1 <0>        -0.6200
     25 N3         12.4095  -37.7916   -6.4187 N.ar      1 <0>        -0.6200
     26 N4         15.7250  -39.2965   -4.4725 N.pl3     1 <0>        -0.8382
     27 N5         17.8800  -40.3543   -2.9244 N.3       1 <0>        -0.8100
     28 N6          8.4845  -35.1894   -9.1012 N.am      1 <0>        -0.5470
     29 N7         13.5986  -35.7830   -6.8881 N.pl3     1 <0>        -0.5840
     30 O1          9.0100  -33.0735   -9.9102 O.2       1 <0>        -0.5700
     31 O2         20.8882  -40.7940   -0.8503 O.3       1 <0>        -0.6800
     32 S1         11.0953  -35.6817   -7.8866 S.3       1 <0>        -0.0800
     33 Cl1         8.1110  -35.0759  -12.1097 Cl        1 <0>        -0.1770
     34 H1          3.5105  -35.8210  -10.7989 H         1 <0>         0.1500
     35 H2          4.0083  -35.8839   -8.3786 H         1 <0>         0.1500
     36 H3          5.3204  -35.4618  -12.4350 H         1 <0>         0.1500
     37 H4         15.5865  -36.9362   -5.6060 H         1 <0>         0.1500
     38 H5         11.7379  -32.3835   -9.1533 H         1 <0>         0.1500
     39 H6         15.7213  -41.1812   -5.4274 H         1 <0>         0.0000
     40 H7         15.3452  -41.2199   -3.6966 H         1 <0>         0.0000
     41 H8         15.6363  -38.7776   -2.4294 H         1 <0>         0.0000
     42 H9         16.1625  -37.4695   -3.5026 H         1 <0>         0.0000
     43 H10        17.5734  -42.1099   -4.0519 H         1 <0>         0.0000
     44 H11        18.0681  -40.7128   -5.0122 H         1 <0>         0.0000
     45 H12        18.3313  -38.5015   -3.8667 H         1 <0>         0.0000
     46 H13        18.0155  -38.4046   -2.1318 H         1 <0>         0.0000
     47 H14         6.6165  -36.6337   -6.8616 H         1 <0>         0.0000
     48 H15         7.2542  -34.9717   -6.9120 H         1 <0>         0.0000
     49 H16         5.5394  -35.2390   -6.6034 H         1 <0>         0.0000
     50 H17        10.5533  -39.6353   -5.0810 H         1 <0>         0.0000
     51 H18        10.6490  -39.6047   -6.8590 H         1 <0>         0.0000
     52 H19        11.4384  -40.9029   -5.9652 H         1 <0>         0.0000
     53 H20        19.9151  -40.0457   -3.2458 H         1 <0>         0.0000
     54 H21        19.4450  -41.7265   -2.8802 H         1 <0>         0.0000
     55 H22        18.8875  -41.0815   -0.5424 H         1 <0>         0.0000
     56 H23        19.3796  -39.3991   -0.8672 H         1 <0>         0.0000
     57 H24         8.8607  -35.9694   -8.5679 H         1 <0>         0.3700
     58 H25        14.4920  -35.3221   -6.7605 H         1 <0>         0.4000
     59 H26        21.0168  -40.6319    0.0980 H         1 <0>         0.4000
@<TRIPOS>BOND
     1    1    2 ar
     2    1    3 ar
     3    2    6 ar
     4    3    8 ar
     5    4   10 ar
     6    4   11 ar
     7    5    9 2
     8    5   23 1
     9    6    7 ar
    10    6   19 1
    11    7    8 ar
    12    7   28 1
    13    8   33 1
    14    9   14 1
    15    9   32 1
    16   10   24 ar
    17   10   26 1
    18   11   25 ar
    19   11   29 1
    20   12   20 1
    21   12   24 ar
    22   12   25 ar
    23   13   23 2
    24   13   29 1
    25   13   32 1
    26   14   28 am
    27   14   30 2
    28   15   17 1
    29   15   26 1
    30   16   18 1
    31   16   26 1
    32   17   27 1
    33   18   27 1
    34   21   22 1
    35   21   27 1
    36   22   31 1
    37    1   34 1
    38    2   35 1
    39    3   36 1
    40    4   37 1
    41    5   38 1
    42   15   39 1
    43   15   40 1
    44   16   41 1
    45   16   42 1
    46   17   43 1
    47   17   44 1
    48   18   45 1
    49   18   46 1
    50   19   47 1
    51   19   48 1
    52   19   49 1
    53   20   50 1
    54   20   51 1
    55   20   52 1
    56   21   53 1
    57   21   54 1
    58   22   55 1
    59   22   56 1
    60   28   57 1
    61   29   58 1
    62   31   59 1
